@<TRIPOS>MOLECULE
FMN_SQ_protonated
   44    46     1     0     0
SMALL
bcc


@<TRIPOS>ATOM
      1 P           29.2380    -7.5160    -2.7550 p5         1 FMN      1.306900
      2 O1P           30.2890    -7.5810    -1.6470 o          1 FMN     -0.361833
      3 O2P          27.9300    -8.1930    -2.3720 o          1 FMN     -0.361833
      4 O3P          29.0010    -6.0890    -3.2190 o          1 FMN     -0.361833
      5 C5'           30.1540    -9.7280    -3.8840 c3         1 FMN      0.053400
      6 O5'          29.8440    -8.3240    -4.0010 os         1 FMN     -0.519200
      7 C4'         31.0860   -10.0630    -5.0210 c          1 FMN      0.488100
      8 O4'          32.3410    -9.4160    -4.8110 o          1 FMN     -0.476100
      9 C3'          31.3230   -11.5620    -5.2010 c          1 FMN      0.387100
     10 O3'          31.8990   -12.1300    -4.0170 o          1 FMN     -0.440100
     11 C2'          30.0800   -12.3780    -5.5610 c          1 FMN      0.491100
     12 O2'          29.2770   -11.5780    -6.4570 o          1 FMN     -0.445100
     13 C1'         30.5140   -13.7610    -6.1150 c3         1 FMN      0.123800
     14 N1           29.4070   -13.9680    -8.6360 ne         1 FMN     -0.772100
     15 C2          28.8760   -14.0050    -9.8670 c          1 FMN      0.861900
     16 O2          29.4000   -13.3670   -10.7810 o          1 FMN     -0.644500
     17 N3          27.7330   -14.7290   -10.1570 ns         1 FMN     -0.584500
     18 C4          27.0980   -15.4760    -9.1870 c          1 FMN      0.780500
     19 C4A          27.6430   -15.4570    -7.8660 c6         1 FMN     -0.449800
     20 O4          26.0960   -16.1150    -9.4830 o          1 FMN     -0.691500
     21 C5A          27.6400   -16.1470    -5.6690 ce         1 FMN     -0.141100
     22 N5          27.0550   -16.1490    -6.9110 nu         1 FMN     -0.262000
     23 C6          27.0750   -16.9440    -4.6510 c1         1 FMN     -0.017800
     24 C7         27.6560   -17.0430    -3.4070 ce         1 FMN     -0.095300
     25 C7M         27.0560   -17.9480    -2.3580 c3         1 FMN     -0.042900
     26 C8         28.8160   -16.2770    -3.1140 ce         1 FMN     -0.041300
     27 C8M         29.4670   -16.3340    -1.7530 c3         1 FMN     -0.049900
     28 C9         29.3330   -15.4270    -4.0780 c1         1 FMN     -0.082800
     29 C9A         28.7920   -15.3830    -5.3740 ce         1 FMN      0.237900
     30 C10         28.8260   -14.6550    -7.6760 c2         1 FMN      0.803200
     31 N10          29.3420   -14.6080    -6.3940 nh         1 FMN     -0.570400
     32 H           26.0930   -16.9460    -7.0970 hn         1 FMN      0.460800
     33 H1          27.3700   -15.4170   -11.2310 hn         1 FMN      0.349500
     34 H2          30.6310    -9.9230    -2.9460 h1         1 FMN      0.130200
     35 H3          29.2660   -10.3230    -3.9270 h1         1 FMN      0.130200
     36 H4          31.0660   -13.6180    -7.0200 h1         1 FMN      0.109200
     37 H5          31.1200   -14.2480    -5.3800 h1         1 FMN      0.109200
     38 H6          26.1940   -18.4380    -2.7610 hc         1 FMN      0.065367
     39 H7          26.7700   -17.3660    -1.5070 hc         1 FMN      0.065367
     40 H8          27.7780   -18.6800    -2.0630 hc         1 FMN      0.065367
     41 H9          30.3200   -15.6890    -1.7390 hc         1 FMN      0.067367
     42 H10         29.7750   -17.3380    -1.5470 hc         1 FMN      0.067367
     43 H11         28.7670   -16.0160    -1.0090 hc         1 FMN      0.067367
     44 H12         27.7500   -15.7280    -6.8360 h1         1 FMN      0.190700
@<TRIPOS>BOND
     1     1     2 1   
     2     1     3 1   
     3     1     4 1   
     4     1     6 1   
     5     5     6 1   
     6     5     7 1   
     7     5    34 1   
     8     5    35 1   
     9     7     8 2   
    10     7     9 1   
    11     9    10 2   
    12     9    11 1   
    13    11    12 2   
    14    11    13 1   
    15    13    31 1   
    16    13    36 1   
    17    13    37 1   
    18    14    15 1   
    19    14    30 2   
    20    15    16 2   
    21    15    17 1   
    22    17    18 1   
    23    17    33 1   
    24    18    19 1   
    25    18    20 2   
    26    19    22 1   
    27    19    30 1   
    28    19    44 1   
    29    21    22 1   
    30    21    23 2   
    31    21    29 1   
    32    22    32 1   
    33    23    24 2   
    34    24    25 1   
    35    24    26 1   
    36    25    38 1   
    37    25    39 1   
    38    25    40 1   
    39    26    27 1   
    40    26    28 2   
    41    27    41 1   
    42    27    42 1   
    43    27    43 1   
    44    28    29 2   
    45    29    31 1   
    46    30    31 1   
@<TRIPOS>SUBSTRUCTURE
     1 FMNss        1 TEMP              0 ****  ****    0 ROOT
