@<TRIPOS>MOLECULE
FMN_RED-1_H
   33    35     1     0     0
SMALL
bcc


@<TRIPOS>ATOM
      1 P           29.2380    -7.5160    -2.7550 p5         1 FMN      1.559500
      2 O1P           30.2890    -7.5810    -1.6470 o          1 FMN     -0.623167
      3 O2P          27.9300    -8.1930    -2.3720 o          1 FMN     -0.623167
      4 O3P          29.0010    -6.0890    -3.2190 o          1 FMN     -0.623167
      5 C5'           30.1540    -9.7280    -3.8840 c1         1 FMN      0.340000
      6 O5'          29.8440    -8.3240    -4.0010 os         1 FMN     -0.687000
      7 C4'          31.0860   -10.0630    -5.0210 c2         1 FMN      0.198000
      8 O4'          32.3410    -9.4160    -4.8110 o          1 FMN     -0.159000
      9 C3'          31.3230   -11.5620    -5.2010 c2         1 FMN      0.205000
     10 O3'          31.8990   -12.1300    -4.0170 o          1 FMN     -0.181000
     11 C2'          30.0800   -12.3780    -5.5610 c2         1 FMN      0.146000
     12 O2'          29.2770   -11.5780    -6.4570 o          1 FMN     -0.183000
     13 C1'          30.5140   -13.7610    -6.1150 c1         1 FMN     -0.016000
     14 N1           29.4070   -13.9680    -8.6360 n2         1 FMN     -0.240000
     15 C2          28.8760   -14.0050    -9.8670 c2         1 FMN      0.364000
     16 O2          29.4000   -13.3670   -10.7810 o          1 FMN     -0.322000
     17 N3          27.7330   -14.7290   -10.1570 ns         1 FMN     -0.379000
     18 C4          27.0980   -15.4760    -9.1870 c2         1 FMN      0.377000
     19 C4A          27.6430   -15.4570    -7.8660 c2         1 FMN     -0.344000
     20 O4          26.0960   -16.1150    -9.4830 o          1 FMN     -0.397000
     21 C5A          27.6400   -16.1470    -5.6690 c2         1 FMN      0.020000
     22 N5          27.0550   -16.1490    -6.9110 na         1 FMN      0.032000
     23 C6          27.0750   -16.9440    -4.6510 c1         1 FMN     -0.022000
     24 C7         27.6560   -17.0430    -3.4070 c2         1 FMN     -0.383000
     25 C7M         27.0560   -17.9480    -2.3580 c1         1 FMN      0.392000
     26 C8         28.8160   -16.2770    -3.1140 c2         1 FMN     -0.350000
     27 C8M         29.4670   -16.3340    -1.7530 c1         1 FMN      0.347000
     28 C9         29.3330   -15.4270    -4.0780 c1         1 FMN     -0.148000
     29 C9A         28.7920   -15.3830    -5.3740 c2         1 FMN     -0.210000
     30 C10         28.8260   -14.6550    -7.6760 c2         1 FMN      0.195000
     31 N10          29.3420   -14.6080    -6.3940 na         1 FMN      0.172000
     32 H           26.0000   -16.8690    -7.1530 hn         1 FMN      0.288000
     33 H1          27.1650   -14.9290   -10.6380 hn         1 FMN      0.256000
@<TRIPOS>BOND
     1     1     2 1   
     2     1     3 1   
     3     1     4 1   
     4     1     6 1   
     5     5     6 1   
     6     5     7 1   
     7     7     8 1   
     8     7     9 1   
     9     9    10 1   
    10     9    11 1   
    11    11    12 1   
    12    11    13 1   
    13    13    31 1   
    14    14    15 1   
    15    14    30 1   
    16    15    16 1   
    17    15    17 1   
    18    17    18 1   
    19    17    33 1   
    20    18    19 1   
    21    18    20 1   
    22    19    22 1   
    23    19    30 1   
    24    21    22 1   
    25    21    23 1   
    26    21    29 1   
    27    22    32 1   
    28    23    24 1   
    29    24    25 1   
    30    24    26 1   
    31    26    27 1   
    32    26    28 1   
    33    28    29 1   
    34    29    31 1   
    35    30    31 1   
@<TRIPOS>SUBSTRUCTURE
     1 FMN        1 TEMP              0 ****  ****    0 ROOT
