@<TRIPOS>MOLECULE
FMN_SQ
   51    53     1     0     0
SMALL
bcc


@<TRIPOS>ATOM
      1 P           29.2380    -7.5160    -2.7550 p5         1 FMN_      1.444800
      2 O1P         30.2890    -7.5810    -1.6470 oh         1 FMN_     -0.765400
      3 O2P         27.9300    -8.1930    -2.3720 o          1 FMN_     -0.849000
      4 O3P         29.0010    -6.0890    -3.2190 o          1 FMN_     -0.849000
      5 C5'         30.1540    -9.7280    -3.8840 c3         1 FMN_      0.163400
      6 O5'         29.8440    -8.3240    -4.0010 os         1 FMN_     -0.588200
      7 C4'         31.0860   -10.0630    -5.0210 c3         1 FMN_      0.102100
      8 O4'         32.3410    -9.4160    -4.8110 oh         1 FMN_     -0.608800
      9 C3'         31.3230   -11.5620    -5.2010 c3         1 FMN_      0.101100
     10 O3'         31.8990   -12.1300    -4.0170 oh         1 FMN_     -0.618800
     11 C2'         30.0800   -12.3780    -5.5610 c3         1 FMN_      0.090100
     12 O2'         29.2770   -11.5780    -6.4570 oh         1 FMN_     -0.596800
     13 C1'         30.5140   -13.7610    -6.1150 c3         1 FMN_     -0.014700
     14 N1          29.4070   -13.9680    -8.6360 nc         1 FMN_     -0.442400
     15 C2          28.8760   -14.0050    -9.8670 c          1 FMN_      0.853900
     16 O2          29.4000   -13.3670   -10.7810 o          1 FMN_     -0.616500
     17 N3          27.7330   -14.7290   -10.1570 ns         1 FMN_     -0.619500
     18 C4          27.0980   -15.4760    -9.1870 c          1 FMN_      0.614000
     19 C4A         27.6430   -15.4570    -7.8660 cd         1 FMN_      0.279800
     20 O4          26.0960   -16.1150    -9.4830 o          1 FMN_     -0.601500
     21 C5A         27.6400   -16.1470    -5.6690 ca         1 FMN_      0.274600
     22 N5          27.0550   -16.1490    -6.9110 nc         1 FMN_     -0.518000
     23 C6          27.0750   -16.9440    -4.6510 ca         1 FMN_     -0.121300
     24 C7          27.6560   -17.0430    -3.4070 ca         1 FMN_     -0.118300
     25 C7M         27.0560   -17.9480    -2.3580 c3         1 FMN_     -0.046800
     26 C8          28.8160   -16.2770    -3.1140 ca         1 FMN_      0.006700
     27 C8M         29.4670   -16.3340    -1.7530 c3         1 FMN_     -0.079800
     28 C9          29.3330   -15.4270    -4.0780 ca         1 FMN_     -0.169000
     29 C9A         28.7920   -15.3830    -5.3740 ca         1 FMN_     -0.005600
     30 C10         28.8260   -14.6550    -7.6760 cd         1 FMN_      0.098400
     31 N10         29.3420   -14.6080    -6.3940 na         1 FMN_     -0.074100
     32 H           26.9110   -15.1550   -10.6370 hn         1 FMN_      0.336500
     33 H1          31.0990    -7.1370    -1.9430 ho         1 FMN_      0.436000
     34 H2          30.6310    -9.9230    -2.9460 h1         1 FMN_      0.032700
     35 H3          29.2660   -10.3230    -3.9270 h1         1 FMN_      0.032700
     36 H4          30.6110    -9.7150    -5.9140 h1         1 FMN_      0.068700
     37 H5          32.7460    -9.7520    -3.9960 ho         1 FMN_      0.427000
     38 H6          31.9900   -11.6230    -6.0360 h1         1 FMN_      0.063700
     39 H7          31.2680   -12.0580    -3.2840 ho         1 FMN_      0.451000
     40 H8          29.4670   -12.6020    -4.7130 h1         1 FMN_      0.116700
     41 H9          29.7980   -11.3520    -7.2430 ho         1 FMN_      0.410000
     42 H10         31.1340   -14.2490    -5.3920 h1         1 FMN_      0.097200
     43 H11         31.0510   -13.6100    -7.0280 h1         1 FMN_      0.097200
     44 H12         26.2050   -17.4650    -4.8440 ha         1 FMN_      0.148000
     45 H13         26.1940   -18.4380    -2.7610 hc         1 FMN_      0.042700
     46 H14         26.7700   -17.3660    -1.5070 hc         1 FMN_      0.042700
     47 H15         27.7780   -18.6800    -2.0630 hc         1 FMN_      0.042700
     48 H16         28.9450   -17.0360    -1.1370 hc         1 FMN_      0.065700
     49 H17         29.4310   -15.3660    -1.3000 hc         1 FMN_      0.065700
     50 H18         30.4870   -16.6410    -1.8580 hc         1 FMN_      0.065700
     51 H19         30.1290   -14.8150    -3.8400 ha         1 FMN_      0.234000
@<TRIPOS>BOND
     1     1     2 1   
     2     1     3 1   
     3     1     4 1   
     4     1     6 1   
     5     2    33 1   
     6     5     6 1   
     7     5     7 1   
     8     5    34 1   
     9     5    35 1   
    10     7     8 1   
    11     7     9 1   
    12     7    36 1   
    13     8    37 1   
    14     9    10 1   
    15     9    11 1   
    16     9    38 1   
    17    10    39 1   
    18    11    12 1   
    19    11    13 1   
    20    11    40 1   
    21    12    41 1   
    22    13    31 1   
    23    13    42 1   
    24    13    43 1   
    25    14    15 1   
    26    14    30 2   
    27    15    16 2   
    28    15    17 1   
    29    17    18 1   
    30    17    32 1   
    31    18    19 1   
    32    18    20 2   
    33    19    22 2   
    34    19    30 1   
    35    21    22 1   
    36    21    23 ar  
    37    21    29 ar  
    38    23    24 ar  
    39    23    44 1   
    40    24    25 1   
    41    24    26 ar  
    42    25    45 1   
    43    25    46 1   
    44    25    47 1   
    45    26    27 1   
    46    26    28 ar  
    47    27    48 1   
    48    27    49 1   
    49    27    50 1   
    50    28    29 ar  
    51    28    51 1   
    52    29    31 1   
    53    30    31 1   
@<TRIPOS>SUBSTRUCTURE
     1 FMN_        1 TEMP              0 ****  ****    0 ROOT
