@<TRIPOS>MOLECULE
SF4
    8     0     1     0     0
SMALL
bcc


@<TRIPOS>ATOM
      1 FE1        -17.3310    15.6610    52.7330 Y1      350 SF4       0.925000
      2 FE2        -16.7630    15.0920    50.1180 Y1      350 SF4       0.925000
      3 FE3        -16.9570    13.1020    51.9730 Y1      350 SF4       0.925000
      4 FE4        -19.1690    14.4570    51.1560 Y1      350 SF4       0.925000
      5 S1         -17.8580    13.0900    49.8530 Y2       350 SF4      -0.42500
      6 S2         -18.6500    13.8730    53.3320 Y2       350 SF4      -0.42500
      7 S3         -18.3400    16.5850    50.8830 Y2       350 SF4      -0.42500
      8 S4         -15.3690    14.7680    51.9140 Y2       350 SF4      -0.42500
@<TRIPOS>BOND
@<TRIPOS>SUBSTRUCTURE
     1 SF4         1 TEMP              0 ****  ****    0 ROOT
